#======================================================================

# CRYSTAL DATA

#----------------------------------------------------------------------

data_VESTA_phase_1


_chemical_name_common                  'Li6PS5Cl'
_cell_length_a                         9.86026
_cell_length_b                         9.86026
_cell_length_c                         9.86026
_cell_angle_alpha                      90
_cell_angle_beta                       90
_cell_angle_gamma                      90
_space_group_name_H-M_alt              'F -4 3 m'
_space_group_IT_number                 216

loop_
_space_group_symop_operation_xyz
   'x, y, z'
   '-x, -y, z'
   '-x, y, -z'
   'x, -y, -z'
   'z, x, y'
   'z, -x, -y'
   '-z, -x, y'
   '-z, x, -y'
   'y, z, x'
   '-y, z, -x'
   'y, -z, -x'
   '-y, -z, x'
   'y, x, z'
   '-y, -x, z'
   'y, -x, -z'
   '-y, x, -z'
   'x, z, y'
   '-x, z, -y'
   '-x, -z, y'
   'x, -z, -y'
   'z, y, x'
   'z, -y, -x'
   '-z, y, -x'
   '-z, -y, x'
   'x, y+1/2, z+1/2'
   '-x, -y+1/2, z+1/2'
   '-x, y+1/2, -z+1/2'
   'x, -y+1/2, -z+1/2'
   'z, x+1/2, y+1/2'
   'z, -x+1/2, -y+1/2'
   '-z, -x+1/2, y+1/2'
   '-z, x+1/2, -y+1/2'
   'y, z+1/2, x+1/2'
   '-y, z+1/2, -x+1/2'
   'y, -z+1/2, -x+1/2'
   '-y, -z+1/2, x+1/2'
   'y, x+1/2, z+1/2'
   '-y, -x+1/2, z+1/2'
   'y, -x+1/2, -z+1/2'
   '-y, x+1/2, -z+1/2'
   'x, z+1/2, y+1/2'
   '-x, z+1/2, -y+1/2'
   '-x, -z+1/2, y+1/2'
   'x, -z+1/2, -y+1/2'
   'z, y+1/2, x+1/2'
   'z, -y+1/2, -x+1/2'
   '-z, y+1/2, -x+1/2'
   '-z, -y+1/2, x+1/2'
   'x+1/2, y, z+1/2'
   '-x+1/2, -y, z+1/2'
   '-x+1/2, y, -z+1/2'
   'x+1/2, -y, -z+1/2'
   'z+1/2, x, y+1/2'
   'z+1/2, -x, -y+1/2'
   '-z+1/2, -x, y+1/2'
   '-z+1/2, x, -y+1/2'
   'y+1/2, z, x+1/2'
   '-y+1/2, z, -x+1/2'
   'y+1/2, -z, -x+1/2'
   '-y+1/2, -z, x+1/2'
   'y+1/2, x, z+1/2'
   '-y+1/2, -x, z+1/2'
   'y+1/2, -x, -z+1/2'
   '-y+1/2, x, -z+1/2'
   'x+1/2, z, y+1/2'
   '-x+1/2, z, -y+1/2'
   '-x+1/2, -z, y+1/2'
   'x+1/2, -z, -y+1/2'
   'z+1/2, y, x+1/2'
   'z+1/2, -y, -x+1/2'
   '-z+1/2, y, -x+1/2'
   '-z+1/2, -y, x+1/2'
   'x+1/2, y+1/2, z'
   '-x+1/2, -y+1/2, z'
   '-x+1/2, y+1/2, -z'
   'x+1/2, -y+1/2, -z'
   'z+1/2, x+1/2, y'
   'z+1/2, -x+1/2, -y'
   '-z+1/2, -x+1/2, y'
   '-z+1/2, x+1/2, -y'
   'y+1/2, z+1/2, x'
   '-y+1/2, z+1/2, -x'
   'y+1/2, -z+1/2, -x'
   '-y+1/2, -z+1/2, x'
   'y+1/2, x+1/2, z'
   '-y+1/2, -x+1/2, z'
   'y+1/2, -x+1/2, -z'
   '-y+1/2, x+1/2, -z'
   'x+1/2, z+1/2, y'
   '-x+1/2, z+1/2, -y'
   '-x+1/2, -z+1/2, y'
   'x+1/2, -z+1/2, -y'
   'z+1/2, y+1/2, x'
   'z+1/2, -y+1/2, -x'
   '-z+1/2, y+1/2, -x'
   '-z+1/2, -y+1/2, x'

loop_
   _atom_site_label
   _atom_site_occupancy
   _atom_site_fract_x
   _atom_site_fract_y
   _atom_site_fract_z
   _atom_site_adp_type
   _atom_site_U_iso_or_equiv
   _atom_site_type_symbol
   Li1        0.5000  0.3202(5)     0.0183(7)     0.679750     Uiso  0.069700 Li
   Cl1        0.3849  0.000000      0.000000      1.000000     Uiso  0.031900 Cl
   S1         0.3849  0.250000      0.250000      0.750000     Uiso  0.035900 S
   P1         1.0     0.000000      0.000000      0.500000     Uiso  0.020000 P
   S2         1.0     0.1186(3)    -0.118570      0.618570     Uiso  0.029400 S
   S3         0.6151  0.000000      0.000000      1.000000     Uiso  0.031900 S
   Cl2        0.6151  0.250000      0.250000      0.750000     Uiso  0.035900 Cl
