# generated using pymatgen
data_NaLi23P4(S5Cl)4
_symmetry_space_group_name_H-M   'P 1'
_cell_length_a   20.31231100
_cell_length_b   20.31231100
_cell_length_c   20.31231100
_cell_angle_alpha   90.00000000
_cell_angle_beta   90.00000000
_cell_angle_gamma   90.00000000
_symmetry_Int_Tables_number   1
_chemical_formula_structural   NaLi23P4(S5Cl)4
_chemical_formula_sum   'Na8 Li184 P32 S160 Cl32'
_cell_volume   8380.65595188
_cell_formula_units_Z   8
loop_
 _symmetry_equiv_pos_site_id
 _symmetry_equiv_pos_as_xyz
  1  'x, y, z'
loop_
 _atom_site_type_symbol
 _atom_site_label
 _atom_site_symmetry_multiplicity
 _atom_site_fract_x
 _atom_site_fract_y
 _atom_site_fract_z
 _atom_site_occupancy
  Li  Li0  1  0.996916  0.923135  0.906599  1
  Li  Li1  1  0.030430  0.112583  0.476092  1
  Li  Li2  1  0.999942  0.376539  0.029524  1
  Li  Li3  1  0.920511  0.410752  0.503793  1
  Li  Li4  1  0.575764  0.910228  0.001150  1
  Li  Li5  1  0.592815  0.941707  0.522611  1
  Na  Na6  1  0.476222  0.457828  0.887208  1
  Li  Li7  1  0.420277  0.603760  0.496827  1
  Li  Li8  1  0.283947  0.463856  0.365513  1
  Li  Li9  1  0.134942  0.495101  0.749323  1
  Li  Li10  1  0.268957  0.935661  0.347093  1
  Li  Li11  1  0.250388  0.909312  0.840357  1
  Li  Li12  1  0.843490  0.529401  0.204369  1
  Li  Li13  1  0.767048  0.516931  0.641102  1
  Li  Li14  1  0.632421  0.033361  0.276779  1
  Li  Li15  1  0.815343  0.936652  0.687856  1
  Li  Li16  1  0.085320  0.159282  0.272357  1
  Li  Li17  1  0.118211  0.222151  0.775837  1
  Li  Li18  1  0.105642  0.797988  0.219658  1
  Li  Li19  1  0.972901  0.783206  0.853267  1
  Li  Li20  1  0.479740  0.335151  0.336924  1
  Li  Li21  1  0.573672  0.159408  0.772238  1
  Li  Li22  1  0.598695  0.843364  0.245052  1
  Li  Li23  1  0.517555  0.663000  0.832680  1
  Li  Li24  1  0.228527  0.483759  0.142973  1
  Li  Li25  1  0.271986  0.457103  0.852198  1
  Li  Li26  1  0.328331  0.918153  0.215533  1
  Li  Li27  1  0.147402  0.013396  0.776464  1
  Li  Li28  1  0.657856  0.501023  0.340407  1
  Li  Li29  1  0.670771  0.404707  0.728477  1
  Li  Li30  1  0.752328  0.093408  0.172316  1
  Li  Li31  1  0.831211  0.077175  0.752512  1
  Li  Li32  1  0.930044  0.338916  0.237024  1
  Li  Li33  1  0.024011  0.332180  0.672529  1
  Li  Li34  1  0.925495  0.681614  0.310544  1
  Li  Li35  1  0.937047  0.828635  0.701371  1
  Li  Li36  1  0.611910  0.218584  0.296189  1
  Li  Li37  1  0.418967  0.337364  0.739850  1
  Li  Li38  1  0.480489  0.833560  0.343255  1
  Li  Li39  1  0.496948  0.660232  0.656332  1
  Li  Li40  1  0.914669  0.585454  0.500907  1
  Li  Li41  1  0.077486  0.493998  0.094044  1
  Li  Li42  1  0.915704  0.025074  0.582914  1
  Li  Li43  1  0.090663  0.919621  0.024666  1
  Li  Li44  1  0.468392  0.496012  0.393432  1
  Na  Na45  1  0.419523  0.581703  0.972332  1
  Li  Li46  1  0.470833  0.036268  0.610052  1
  Li  Li47  1  0.409004  0.911049  0.979727  1
  Li  Li48  1  0.985076  0.290196  0.366781  1
  Li  Li49  1  0.003091  0.163683  0.663677  1
  Li  Li50  1  0.979755  0.667155  0.160457  1
  Li  Li51  1  0.976293  0.700086  0.638839  1
  Na  Na52  1  0.488213  0.562592  0.100538  1
  Li  Li53  1  0.420734  0.159290  0.728517  1
  Li  Li54  1  0.490149  0.839371  0.154538  1
  Li  Li55  1  0.513538  0.827622  0.654303  1
  Li  Li56  1  0.173104  0.252722  0.591967  1
  Li  Li57  1  0.240944  0.163301  0.088560  1
  Li  Li58  1  0.336538  0.756318  0.404844  1
  Li  Li59  1  0.223498  0.985383  0.135287  1
  Li  Li60  1  0.743681  0.177626  0.413043  1
  Li  Li61  1  0.678097  0.307291  0.942419  1
  Li  Li62  1  0.754921  0.843748  0.416931  1
  Li  Li63  1  0.858377  0.770772  0.961922  1
  Li  Li64  1  0.965252  0.204325  0.148491  1
  Li  Li65  1  0.002284  0.160511  0.835606  1
  Li  Li66  1  0.080762  0.659885  0.274402  1
  Li  Li67  1  0.112865  0.703087  0.774815  1
  Li  Li68  1  0.456867  0.177996  0.311652  1
  Li  Li69  1  0.565387  0.314536  0.816128  1
  Li  Li70  1  0.567947  0.696355  0.178262  1
  Li  Li71  1  0.396053  0.744296  0.740963  1
  Li  Li72  1  0.406614  0.091393  0.497877  1
  Li  Li73  1  0.532260  0.988282  0.107646  1
  Li  Li74  1  0.490282  0.397502  0.508223  1
  Na  Na75  1  0.420163  0.423893  0.036636  1
  Li  Li76  1  0.086062  0.998648  0.592294  1
  Li  Li77  1  0.926532  0.054742  0.937525  1
  Li  Li78  1  0.084411  0.581442  0.485685  1
  Li  Li79  1  0.976573  0.604911  0.014733  1
  Li  Li80  1  0.389984  0.048198  0.036151  1
  Li  Li81  1  0.586514  0.090214  0.480401  1
  Na  Na82  1  0.576199  0.412177  0.026322  1
  Li  Li83  1  0.591707  0.486357  0.585035  1
  Li  Li84  1  0.907080  0.913116  0.012613  1
  Li  Li85  1  0.908377  0.980849  0.430000  1
  Li  Li86  1  0.897209  0.496819  0.069170  1
  Li  Li87  1  0.089892  0.420857  0.521330  1
  Li  Li88  1  0.542633  0.105276  0.983367  1
  Li  Li89  1  0.478363  0.998899  0.389277  1
  Na  Na90  1  0.604190  0.545183  0.964069  1
  Li  Li91  1  0.420067  0.509433  0.592091  1
  Li  Li92  1  0.971083  0.030673  0.112220  1
  Li  Li93  1  0.020577  0.886595  0.532792  1
  Li  Li94  1  0.085336  0.491946  0.927957  1
  Li  Li95  1  0.976036  0.477206  0.389393  1
  Li  Li96  1  0.140089  0.962280  0.238172  1
  Li  Li97  1  0.316417  0.055794  0.814776  1
  Li  Li98  1  0.338024  0.405970  0.249299  1
  Li  Li99  1  0.235673  0.607886  0.793784  1
  Li  Li100  1  0.791578  0.898918  0.274152  1
  Li  Li101  1  0.662092  0.012254  0.841820  1
  Li  Li102  1  0.714237  0.612456  0.270693  1
  Li  Li103  1  0.765654  0.453291  0.864019  1
  Li  Li104  1  0.331369  0.086046  0.224652  1
  Li  Li105  1  0.269594  0.072120  0.660844  1
  Li  Li106  1  0.163564  0.429964  0.257821  1
  Li  Li107  1  0.366509  0.482976  0.758202  1
  Li  Li108  1  0.855931  0.034648  0.236459  1
  Li  Li109  1  0.666215  0.905420  0.730359  1
  Li  Li110  1  0.737126  0.386537  0.230303  1
  Li  Li111  1  0.653440  0.548972  0.781008  1
  Li  Li112  1  0.129749  0.223923  0.976879  1
  Li  Li113  1  0.217911  0.140766  0.480761  1
  Li  Li114  1  0.164240  0.753903  0.915982  1
  Li  Li115  1  0.232683  0.640781  0.462191  1
  Li  Li116  1  0.836811  0.153888  0.021770  1
  Li  Li117  1  0.639874  0.288624  0.508204  1
  Li  Li118  1  0.788845  0.624606  0.018479  1
  Li  Li119  1  0.736773  0.669457  0.418090  1
  Li  Li120  1  0.356673  0.222358  0.024574  1
  Li  Li121  1  0.165132  0.255384  0.414871  1
  Li  Li122  1  0.240483  0.841667  0.069121  1
  Li  Li123  1  0.168885  0.753400  0.399903  1
  Li  Li124  1  0.683289  0.183477  0.060788  1
  Li  Li125  1  0.746135  0.343786  0.583729  1
  Li  Li126  1  0.637285  0.709089  0.981312  1
  Li  Li127  1  0.639221  0.777106  0.518669  1
  Na  Na128  1  0.523687  0.375386  0.209354  1
  Li  Li129  1  0.536507  0.271200  0.643705  1
  Li  Li130  1  0.403807  0.715634  0.218245  1
  Li  Li131  1  0.500506  0.826403  0.832920  1
  Li  Li132  1  0.926784  0.167862  0.295756  1
  Li  Li133  1  0.890379  0.225895  0.723738  1
  Li  Li134  1  0.939175  0.819175  0.188417  1
  Li  Li135  1  0.088126  0.839613  0.726162  1
  Li  Li136  1  0.080937  0.072685  0.980764  1
  Li  Li137  1  0.080111  0.977167  0.420120  1
  Li  Li138  1  0.920649  0.468195  0.917341  1
  Li  Li139  1  0.970250  0.523718  0.615429  1
  Li  Li140  1  0.507978  0.006474  0.887395  1
  Li  Li141  1  0.425781  0.912973  0.502114  1
  Li  Li142  1  0.335166  0.765540  0.917725  1
  Li  Li143  1  0.586706  0.593679  0.482246  1
  Li  Li144  1  0.232735  0.088197  0.332125  1
  Li  Li145  1  0.235805  0.912675  0.653319  1
  Li  Li146  1  0.357364  0.556348  0.219062  1
  Li  Li147  1  0.270442  0.560786  0.646759  1
  Li  Li148  1  0.702896  0.956773  0.147031  1
  Li  Li149  1  0.684139  0.058050  0.685820  1
  Li  Li150  1  0.819155  0.484202  0.345125  1
  Li  Li151  1  0.837210  0.404328  0.749885  1
  Li  Li152  1  0.103206  0.297911  0.221521  1
  Li  Li153  1  0.986165  0.329246  0.832517  1
  Li  Li154  1  0.985514  0.823590  0.344141  1
  Li  Li155  1  0.973798  0.645747  0.781952  1
  Li  Li156  1  0.588393  0.264302  0.160220  1
  Li  Li157  1  0.423830  0.251940  0.849472  1
  Li  Li158  1  0.526066  0.677475  0.330025  1
  Li  Li159  1  0.624157  0.745346  0.728491  1
  Li  Li160  1  0.242998  0.163878  0.911290  1
  Li  Li161  1  0.339519  0.230110  0.577588  1
  Li  Li162  1  0.339336  0.724666  0.075034  1
  Li  Li163  1  0.279269  0.860598  0.479975  1
  Li  Li164  1  0.727292  0.151790  0.907323  1
  Li  Li165  1  0.718651  0.175502  0.580812  1
  Li  Li166  1  0.729717  0.848179  0.006128  1
  Li  Li167  1  0.776141  0.672714  0.578877  1
  Li  Li168  1  0.225869  0.603987  0.291390  1
  Li  Li169  1  0.234720  0.391557  0.693729  1
  Na  Na170  1  0.418112  0.242028  0.170502  1
  Li  Li171  1  0.355222  0.916825  0.748241  1
  Li  Li172  1  0.667803  0.495672  0.161263  1
  Li  Li173  1  0.819405  0.585591  0.764943  1
  Li  Li174  1  0.738211  0.036002  0.361018  1
  Li  Li175  1  0.777991  0.916100  0.847457  1
  Li  Li176  1  0.251631  0.321267  0.915492  1
  Li  Li177  1  0.327900  0.263882  0.407120  1
  Li  Li178  1  0.174223  0.700395  0.077246  1
  Li  Li179  1  0.325079  0.733900  0.579713  1
  Li  Li180  1  0.833690  0.262141  0.903007  1
  Li  Li181  1  0.864168  0.224266  0.539022  1
  Li  Li182  1  0.732747  0.709423  0.878375  1
  Li  Li183  1  0.751866  0.839344  0.581779  1
  Li  Li184  1  0.252989  0.361008  0.523727  1
  Li  Li185  1  0.232167  0.329092  0.085752  1
  Li  Li186  1  0.150609  0.776456  0.547960  1
  Li  Li187  1  0.229910  0.633565  0.958447  1
  Li  Li188  1  0.776597  0.337296  0.419376  1
  Li  Li189  1  0.799998  0.306979  0.068531  1
  Li  Li190  1  0.864360  0.776304  0.469810  1
  Li  Li191  1  0.777282  0.735412  0.108414  1
  Cl  Cl192  1  0.133995  0.135797  0.385488  1
  Cl  Cl193  1  0.120673  0.142490  0.881411  1
  Cl  Cl194  1  0.143797  0.637345  0.375421  1
  Cl  Cl195  1  0.147346  0.639137  0.871062  1
  Cl  Cl196  1  0.640563  0.118286  0.371290  1
  Cl  Cl197  1  0.615787  0.112406  0.878804  1
  Cl  Cl198  1  0.632017  0.619040  0.372768  1
  Cl  Cl199  1  0.630317  0.629839  0.876507  1
  Cl  Cl200  1  0.372980  0.378618  0.362445  1
  Cl  Cl201  1  0.379099  0.383933  0.847629  1
  Cl  Cl202  1  0.369620  0.875009  0.390965  1
  Cl  Cl203  1  0.374509  0.871658  0.865611  1
  Cl  Cl204  1  0.886889  0.385021  0.386836  1
  Cl  Cl205  1  0.871796  0.369808  0.862790  1
  Cl  Cl206  1  0.872032  0.869341  0.385848  1
  Cl  Cl207  1  0.885651  0.871133  0.894897  1
  Cl  Cl208  1  0.356822  0.136859  0.116070  1
  Cl  Cl209  1  0.378486  0.119323  0.620024  1
  Cl  Cl210  1  0.387716  0.631780  0.130090  1
  Cl  Cl211  1  0.384118  0.625325  0.613097  1
  Cl  Cl212  1  0.874864  0.112841  0.134091  1
  Cl  Cl213  1  0.886106  0.134379  0.639424  1
  Cl  Cl214  1  0.878779  0.612200  0.104982  1
  Cl  Cl215  1  0.884378  0.615118  0.615750  1
  Cl  Cl216  1  0.138347  0.395023  0.142229  1
  Cl  Cl217  1  0.136421  0.364737  0.624894  1
  Cl  Cl218  1  0.144586  0.887896  0.129598  1
  Cl  Cl219  1  0.123003  0.877952  0.617359  1
  Cl  Cl220  1  0.615268  0.381615  0.136987  1
  Cl  Cl221  1  0.630036  0.371053  0.614759  1
  Cl  Cl222  1  0.602954  0.888793  0.122343  1
  Cl  Cl223  1  0.631872  0.861932  0.621239  1
  S  S224  1  0.045199  0.437540  0.299007  1
  S  S225  1  0.052002  0.439004  0.819185  1
  S  S226  1  0.051906  0.926818  0.312958  1
  S  S227  1  0.053897  0.934764  0.801262  1
  S  S228  1  0.547832  0.448680  0.309193  1
  S  S229  1  0.573086  0.444532  0.803763  1
  S  S230  1  0.544370  0.945322  0.306398  1
  S  S231  1  0.563554  0.938149  0.805706  1
  S  S232  1  0.425382  0.058002  0.301631  1
  S  S233  1  0.442611  0.051595  0.801710  1
  S  S234  1  0.447009  0.579393  0.305427  1
  S  S235  1  0.452141  0.554273  0.805443  1
  S  S236  1  0.939358  0.049355  0.326204  1
  S  S237  1  0.939137  0.055594  0.810187  1
  S  S238  1  0.926711  0.552820  0.301204  1
  S  S239  1  0.923230  0.544262  0.821518  1
  S  S240  1  0.439916  0.464820  0.186678  1
  S  S241  1  0.454008  0.441206  0.685373  1
  S  S242  1  0.437141  0.950494  0.176215  1
  S  S243  1  0.454134  0.936364  0.681258  1
  S  S244  1  0.934671  0.446384  0.177844  1
  S  S245  1  0.943950  0.433638  0.695802  1
  S  S246  1  0.932182  0.946608  0.198865  1
  S  S247  1  0.939360  0.949805  0.681317  1
  S  S248  1  0.056774  0.052851  0.207505  1
  S  S249  1  0.062386  0.059214  0.698813  1
  S  S250  1  0.051197  0.566139  0.192231  1
  S  S251  1  0.042337  0.564030  0.711608  1
  S  S252  1  0.552185  0.065908  0.195078  1
  S  S253  1  0.559811  0.061442  0.691437  1
  S  S254  1  0.569066  0.567368  0.193328  1
  S  S255  1  0.569797  0.559689  0.687930  1
  S  S256  1  0.301719  0.060990  0.438940  1
  S  S257  1  0.306985  0.062984  0.937682  1
  S  S258  1  0.315737  0.554720  0.441243  1
  S  S259  1  0.307356  0.543408  0.933888  1
  S  S260  1  0.810191  0.066602  0.453574  1
  S  S261  1  0.802137  0.057557  0.946452  1
  S  S262  1  0.809869  0.563479  0.438505  1
  S  S263  1  0.813447  0.528059  0.949635  1
  S  S264  1  0.301013  0.433084  0.060536  1
  S  S265  1  0.308871  0.455797  0.576151  1
  S  S266  1  0.305565  0.948592  0.050572  1
  S  S267  1  0.312787  0.944567  0.557862  1
  S  S268  1  0.791551  0.429947  0.081036  1
  S  S269  1  0.812424  0.445862  0.557013  1
  S  S270  1  0.794693  0.933623  0.062533  1
  S  S271  1  0.812147  0.948261  0.563835  1
  S  S272  1  0.200058  0.439442  0.452467  1
  S  S273  1  0.191994  0.427701  0.935965  1
  S  S274  1  0.194158  0.937926  0.443416  1
  S  S275  1  0.183479  0.946702  0.934742  1
  S  S276  1  0.701635  0.437273  0.435707  1
  S  S277  1  0.679991  0.433049  0.951348  1
  S  S278  1  0.694316  0.948570  0.445813  1
  S  S279  1  0.687056  0.941040  0.941339  1
  S  S280  1  0.183823  0.059292  0.050714  1
  S  S281  1  0.192300  0.055587  0.562704  1
  S  S282  1  0.185645  0.550739  0.045466  1
  S  S283  1  0.193829  0.571052  0.551958  1
  S  S284  1  0.684814  0.053749  0.065503  1
  S  S285  1  0.682281  0.058696  0.562250  1
  S  S286  1  0.690846  0.557471  0.054686  1
  S  S287  1  0.692947  0.557878  0.552750  1
  S  S288  1  0.440236  0.306031  0.064481  1
  S  S289  1  0.441889  0.301808  0.561956  1
  S  S290  1  0.432084  0.805885  0.048935  1
  S  S291  1  0.430419  0.803105  0.562686  1
  S  S292  1  0.927689  0.285381  0.063826  1
  S  S293  1  0.950940  0.310265  0.572247  1
  S  S294  1  0.931774  0.802500  0.059793  1
  S  S295  1  0.945731  0.795277  0.559786  1
  S  S296  1  0.065532  0.318891  0.452280  1
  S  S297  1  0.040178  0.299930  0.944955  1
  S  S298  1  0.062808  0.807887  0.445489  1
  S  S299  1  0.059569  0.816449  0.950623  1
  S  S300  1  0.546528  0.318754  0.436852  1
  S  S301  1  0.553123  0.320257  0.945616  1
  S  S302  1  0.549121  0.828253  0.451211  1
  S  S303  1  0.560858  0.801936  0.942511  1
  S  S304  1  0.433818  0.195287  0.434903  1
  S  S305  1  0.449070  0.188750  0.949269  1
  S  S306  1  0.445501  0.702657  0.428911  1
  S  S307  1  0.438082  0.694404  0.928600  1
  S  S308  1  0.949698  0.201975  0.449602  1
  S  S309  1  0.925310  0.181049  0.933850  1
  S  S310  1  0.944736  0.688689  0.437075  1
  S  S311  1  0.949240  0.696262  0.936308  1
  S  S312  1  0.044301  0.173274  0.051169  1
  S  S313  1  0.068478  0.192859  0.561967  1
  S  S314  1  0.052486  0.689781  0.062304  1
  S  S315  1  0.065279  0.683747  0.553806  1
  S  S316  1  0.562687  0.196593  0.062432  1
  S  S317  1  0.563450  0.195996  0.543550  1
  S  S318  1  0.546522  0.681915  0.053557  1
  S  S319  1  0.556262  0.696903  0.551506  1
  S  S320  1  0.307841  0.305079  0.184802  1
  S  S321  1  0.318014  0.298097  0.682105  1
  S  S322  1  0.310272  0.801468  0.175456  1
  S  S323  1  0.308702  0.808832  0.687731  1
  S  S324  1  0.817442  0.301605  0.195270  1
  S  S325  1  0.799308  0.300520  0.689097  1
  S  S326  1  0.815234  0.809574  0.194379  1
  S  S327  1  0.820623  0.812129  0.679367  1
  S  S328  1  0.305286  0.188885  0.303054  1
  S  S329  1  0.322799  0.187089  0.809109  1
  S  S330  1  0.311014  0.694838  0.299306  1
  S  S331  1  0.313159  0.701636  0.812983  1
  S  S332  1  0.807826  0.171953  0.304038  1
  S  S333  1  0.800271  0.188208  0.807113  1
  S  S334  1  0.801051  0.689555  0.313298  1
  S  S335  1  0.831390  0.701755  0.806347  1
  S  S336  1  0.180167  0.200852  0.192530  1
  S  S337  1  0.203262  0.180599  0.694739  1
  S  S338  1  0.181250  0.696197  0.199320  1
  S  S339  1  0.201525  0.683357  0.694857  1
  S  S340  1  0.688486  0.194983  0.192807  1
  S  S341  1  0.674881  0.189539  0.696613  1
  S  S342  1  0.694747  0.701577  0.190393  1
  S  S343  1  0.717868  0.682698  0.688816  1
  S  S344  1  0.195901  0.314491  0.308062  1
  S  S345  1  0.205754  0.305221  0.801313  1
  S  S346  1  0.201565  0.822344  0.300888  1
  S  S347  1  0.185792  0.808428  0.801754  1
  S  S348  1  0.705119  0.300501  0.315030  1
  S  S349  1  0.689049  0.311234  0.810600  1
  S  S350  1  0.699691  0.821121  0.308846  1
  S  S351  1  0.704949  0.804391  0.798940  1
  S  S352  1  0.996247  0.990437  0.002063  1
  S  S353  1  0.004143  0.999882  0.504866  1
  S  S354  1  0.997488  0.489568  0.005159  1
  S  S355  1  0.999635  0.500350  0.503020  1
  S  S356  1  0.492598  0.996134  0.998586  1
  S  S357  1  0.496264  0.010863  0.500391  1
  S  S358  1  0.498129  0.499518  0.997325  1
  S  S359  1  0.500611  0.512988  0.505620  1
  S  S360  1  0.001434  0.245646  0.255952  1
  S  S361  1  0.003914  0.244044  0.752174  1
  S  S362  1  0.002257  0.745639  0.251508  1
  S  S363  1  0.009496  0.750595  0.745420  1
  S  S364  1  0.507976  0.262718  0.248757  1
  S  S365  1  0.495125  0.248224  0.754468  1
  S  S366  1  0.507349  0.766258  0.247986  1
  S  S367  1  0.509823  0.745816  0.743412  1
  S  S368  1  0.251414  0.000497  0.249131  1
  S  S369  1  0.257430  0.984645  0.746532  1
  S  S370  1  0.260570  0.497821  0.254371  1
  S  S371  1  0.250932  0.499689  0.746929  1
  S  S372  1  0.743293  0.002784  0.247660  1
  S  S373  1  0.744736  0.991572  0.759369  1
  S  S374  1  0.741312  0.499802  0.255580  1
  S  S375  1  0.752019  0.489559  0.752693  1
  S  S376  1  0.243070  0.243200  0.000034  1
  S  S377  1  0.251233  0.249560  0.499110  1
  S  S378  1  0.248141  0.743272  0.999836  1
  S  S379  1  0.250615  0.751209  0.488040  1
  S  S380  1  0.754974  0.234724  0.988629  1
  S  S381  1  0.753132  0.255341  0.503972  1
  S  S382  1  0.751688  0.735124  0.993119  1
  S  S383  1  0.751737  0.756927  0.497973  1
  P  P384  1  0.995281  0.994292  0.262048  1
  P  P385  1  0.996903  0.999763  0.748258  1
  P  P386  1  0.991600  0.500692  0.241942  1
  P  P387  1  0.988760  0.494577  0.762594  1
  P  P388  1  0.489753  0.005138  0.243609  1
  P  P389  1  0.504935  0.995917  0.744633  1
  P  P390  1  0.501869  0.516428  0.248889  1
  P  P391  1  0.511856  0.499944  0.744604  1
  P  P392  1  0.243636  0.004122  0.990044  1
  P  P393  1  0.250088  0.000033  0.501092  1
  P  P394  1  0.247816  0.488445  0.995092  1
  P  P395  1  0.254819  0.505269  0.506053  1
  P  P396  1  0.744151  0.999227  0.004414  1
  P  P397  1  0.750487  0.005806  0.507776  1
  P  P398  1  0.745007  0.484108  0.010945  1
  P  P399  1  0.753611  0.499926  0.493858  1
  P  P400  1  0.984444  0.234088  0.997729  1
  P  P401  1  0.009974  0.257038  0.509835  1
  P  P402  1  0.000049  0.753172  0.003561  1
  P  P403  1  0.005592  0.741746  0.497481  1
  P  P404  1  0.503378  0.254178  0.004004  1
  P  P405  1  0.495377  0.251156  0.492745  1
  P  P406  1  0.494448  0.746082  0.995691  1
  P  P407  1  0.494495  0.757799  0.498577  1
  P  P408  1  0.247869  0.252076  0.247275  1
  P  P409  1  0.263235  0.242650  0.746773  1
  P  P410  1  0.250976  0.755178  0.244410  1
  P  P411  1  0.251566  0.750671  0.749355  1
  P  P412  1  0.758348  0.242213  0.251870  1
  P  P413  1  0.738844  0.246745  0.750196  1
  P  P414  1  0.752935  0.755588  0.253576  1
  P  P415  1  0.770706  0.750116  0.742087  1
